# generated using pymatgen
data_Mo
_symmetry_space_group_name_H-M   'P 1'
_cell_length_a   9.45012100
_cell_length_b   9.45012100
_cell_length_c   9.45012100
_cell_angle_alpha   90.00000000
_cell_angle_beta   90.00000000
_cell_angle_gamma   90.00000000
_symmetry_Int_Tables_number   1
_chemical_formula_structural   Mo
_chemical_formula_sum   Mo54
_cell_volume   843.94104222
_cell_formula_units_Z   54
loop_
 _symmetry_equiv_pos_site_id
 _symmetry_equiv_pos_as_xyz
  1  'x, y, z'
loop_
 _atom_site_type_symbol
 _atom_site_label
 _atom_site_symmetry_multiplicity
 _atom_site_fract_x
 _atom_site_fract_y
 _atom_site_fract_z
 _atom_site_occupancy
  Mo  Mo1  1  0.078038  0.984480  0.828788  1
  Mo  Mo2  1  0.058392  0.248395  0.939269  1
  Mo  Mo3  1  0.370015  0.062951  0.195597  1
  Mo  Mo4  1  0.402505  0.694593  0.916591  1
  Mo  Mo5  1  0.842465  0.357441  0.794499  1
  Mo  Mo6  1  0.762038  0.281159  0.489710  1
  Mo  Mo7  1  0.099824  0.062277  0.166327  1
  Mo  Mo8  1  0.666167  0.451496  0.337521  1
  Mo  Mo9  1  0.652250  0.848055  0.904681  1
  Mo  Mo10  1  0.800521  0.783810  0.361934  1
  Mo  Mo11  1  0.454612  0.195484  0.484282  1
  Mo  Mo12  1  0.397095  0.302611  0.218131  1
  Mo  Mo13  1  0.610135  0.438184  0.639976  1
  Mo  Mo14  1  0.219224  0.174796  0.372521  1
  Mo  Mo15  1  0.165035  0.692870  0.076241  1
  Mo  Mo16  1  0.365495  0.789710  0.230581  1
  Mo  Mo17  1  0.352856  0.863862  0.709198  1
  Mo  Mo18  1  0.046146  0.353248  0.525506  1
  Mo  Mo19  1  0.947879  0.040029  0.412677  1
  Mo  Mo20  1  0.040208  0.837518  0.578646  1
  Mo  Mo21  1  0.488311  0.582812  0.141698  1
  Mo  Mo22  1  0.865745  0.042904  0.105548  1
  Mo  Mo23  1  0.265200  0.465864  0.004406  1
  Mo  Mo24  1  0.321010  0.328664  0.742137  1
  Mo  Mo25  1  0.784524  0.628902  0.167799  1
  Mo  Mo26  1  0.353166  0.426733  0.465208  1
  Mo  Mo27  1  0.574413  0.355642  0.936207  1
  Mo  Mo28  1  0.094030  0.475930  0.737292  1
  Mo  Mo29  1  0.937921  0.572944  0.421844  1
  Mo  Mo30  1  0.547601  0.082482  0.000846  1
  Mo  Mo31  1  0.119132  0.688815  0.792387  1
  Mo  Mo32  1  0.210391  0.103679  0.646337  1
  Mo  Mo33  1  0.968136  0.271816  0.269546  1
  Mo  Mo34  1  0.292296  0.186672  0.979720  1
  Mo  Mo35  1  0.652680  0.743706  0.654342  1
  Mo  Mo36  1  0.239904  0.708467  0.516935  1
  Mo  Mo37  1  0.452573  0.059346  0.788185  1
  Mo  Mo38  1  0.896378  0.828890  0.960477  1
  Mo  Mo39  1  0.534528  0.884436  0.505133  1
  Mo  Mo40  1  0.266354  0.915997  0.990498  1
  Mo  Mo41  1  0.969162  0.545902  0.970097  1
  Mo  Mo42  1  0.775083  0.346982  0.111344  1
  Mo  Mo43  1  0.631705  0.122705  0.285974  1
  Mo  Mo44  1  0.277727  0.924223  0.457675  1
  Mo  Mo45  1  0.664362  0.180859  0.762234  1
  Mo  Mo46  1  0.802058  0.918947  0.675549  1
  Mo  Mo47  1  0.484958  0.608879  0.427763  1
  Mo  Mo48  1  0.932444  0.123220  0.656948  1
  Mo  Mo49  1  0.878690  0.657222  0.766317  1
  Mo  Mo50  1  0.649991  0.575585  0.922750  1
  Mo  Mo51  1  0.379530  0.571705  0.683181  1
  Mo  Mo52  1  0.088523  0.798797  0.328142  1
  Mo  Mo53  1  0.601959  0.828217  0.159891  1
  Mo  Mo54  1  0.168613  0.479086  0.282913  1
